@<TRIPOS>MOLECULE
Molecule Name
 25 24 0 0 0
SMALL
USER_CHARGES

@<TRIPOS>ATOM
      1 P           0.0003   -0.0001   -0.6147 P.3     1  UNL1        0.3919
      2 F           0.7188   -1.1426   -1.5485 F       1  UNL1       -0.1641
      3 C          -0.9101    1.3582    0.5327 C.3     1  UNL1        0.4286
      4 F           0.6307    1.1934   -1.5483 F       1  UNL1       -0.1641
      5 C          -0.7215   -1.4674    0.5327 C.3     1  UNL1        0.4286
      6 F          -1.3482   -0.0509   -1.5488 F       1  UNL1       -0.1641
      7 C           1.6316    0.1087    0.5330 C.3     1  UNL1        0.4286
      8 C          -0.9368    2.8320   -0.1132 C.3     1  UNL1        0.4651
      9 C          -1.9848   -2.2269   -0.1133 C.3     1  UNL1        0.4651
     10 C           2.9213   -0.6048   -0.1133 C.3     1  UNL1        0.4651
     11 F          -0.3443    1.4951    1.7871 F       1  UNL1       -0.1834
     12 F          -2.2368    1.0150    0.7358 F       1  UNL1       -0.1834
     13 F           0.3101    3.4060   -0.1434 F       1  UNL1       -0.1645
     14 F          -1.7462    3.6731    0.6236 F       1  UNL1       -0.1645
     15 F          -1.4350    2.8225   -1.3931 F       1  UNL1       -0.1645
     16 F           0.2387   -2.4450    0.7362 F       1  UNL1       -0.1834
     17 F          -1.1230   -1.0455    1.7870 F       1  UNL1       -0.1834
     18 F          -1.7277   -2.6539   -1.3931 F       1  UNL1       -0.1645
     19 F          -2.3092   -3.3481    0.6236 F       1  UNL1       -0.1645
     20 F          -3.1048   -1.4333   -0.1435 F       1  UNL1       -0.1645
     21 F           1.4672   -0.4503    1.7872 F       1  UNL1       -0.1834
     22 F           1.9978    1.4291    0.7369 F       1  UNL1       -0.1834
     23 F           4.0545   -0.3245    0.6234 F       1  UNL1       -0.1645
     24 F           3.1620   -0.1682   -1.3930 F       1  UNL1       -0.1645
     25 F           2.7951   -1.9716   -0.1437 F       1  UNL1       -0.1645
@<TRIPOS>BOND
     1     1     2    1
     2     1     4    1
     3     1     6    1
     4     1     3    1
     5     1     5    1
     6     1     7    1
     7     3     8    1
     8     3    11    1
     9     3    12    1
    10     5     9    1
    11     5    16    1
    12     5    17    1
    13     7    10    1
    14     7    21    1
    15     7    22    1
    16     8    13    1
    17     8    14    1
    18     8    15    1
    19     9    18    1
    20     9    19    1
    21     9    20    1
    22    10    23    1
    23    10    24    1
    24    10    25    1
