@<TRIPOS>MOLECULE
PF6-.pdb
 7 6 0 0 0
SMALL
GASTEIGER

@<TRIPOS>ATOM
      1  F1        -1.3630    0.7750   -0.4770 F       1  PF61       -0.1039
      2  P2         0.0000    0.0000   -0.0000 P.3     1  PF61        0.6235
      3  F3         1.3630   -0.7750    0.4770 F       1  PF61       -0.1039
      4  F4        -0.6450   -0.2180    1.4900 F       1  PF61       -0.1039
      5  F5         0.6450    0.2170   -1.4900 F       1  PF61       -0.1039
      6  F6        -0.6410   -1.4270   -0.4860 F       1  PF61       -0.1039
      7  F7         0.6410    1.4270    0.4860 F       1  PF61       -0.1039
@<TRIPOS>BOND
     1     1     2    1
     2     2     3    1
     3     2     4    1
     4     2     5    1
     5     6     2    1
     6     2     7    1
