@<TRIPOS>MOLECULE
aaa
 26 26 0 0 0
SMALL
GASTEIGER

@<TRIPOS>ATOM
      1 C          -6.4644   -0.1817   -1.0332 C.3     1  UNL1       -0.0438
      2 C          -5.2415   -0.9062   -0.5229 C.2     1  UNL1       -0.0762
      3 C          -4.6520   -1.8714   -1.2380 C.2     1  UNL1       -0.0847
      4 C          -3.4355   -2.6958   -0.8743 C.3     1  UNL1       -0.0308
      5 C          -2.1167   -1.8864   -0.9442 C.3     1  UNL1       -0.0286
      6 C          -1.6436   -1.4218    0.4207 C.2     1  UNL1       -0.0762
      7 C          -2.2333   -0.4554    1.1339 C.2     1  UNL1       -0.0847
      8 C          -3.4484    0.3693    0.7664 C.3     1  UNL1       -0.0308
      9 C          -4.7668   -0.4401    0.8408 C.3     1  UNL1       -0.0286
     10 C          -0.4242   -2.1494    0.9359 C.3     1  UNL1       -0.0438
     11 H          -6.2656    0.8951   -1.0972 H       1  UNL1        0.0274
     12 H          -6.7853   -0.5354   -2.0204 H       1  UNL1        0.0274
     13 H          -7.2998   -0.3025   -0.3328 H       1  UNL1        0.0274
     14 H          -5.0806   -2.1109   -2.2104 H       1  UNL1        0.0572
     15 H          -3.3805   -3.5402   -1.5728 H       1  UNL1        0.0310
     16 H          -3.5692   -3.1321    0.1245 H       1  UNL1        0.0310
     17 H          -2.2508   -1.0101   -1.5912 H       1  UNL1        0.0313
     18 H          -1.3340   -2.4927   -1.4175 H       1  UNL1        0.0313
     19 H          -1.8070   -0.2156    2.1073 H       1  UNL1        0.0572
     20 H          -3.3155    0.8006   -0.2347 H       1  UNL1        0.0310
     21 H          -3.5030    1.2171    1.4607 H       1  UNL1        0.0310
     22 H          -5.5488    0.1673    1.3140 H       1  UNL1        0.0313
     23 H          -4.6317   -1.3155    1.4888 H       1  UNL1        0.0313
     24 H           0.4155   -2.0268    0.2411 H       1  UNL1        0.0274
     25 H          -0.1088   -1.7990    1.9262 H       1  UNL1        0.0274
     26 H          -0.6244   -3.2261    0.9960 H       1  UNL1        0.0274
@<TRIPOS>BOND
     1     1     2    1
     2     2     3    2
     3     3     4    1
     4     4     5    1
     5     5     6    1
     6     6     7    2
     7     7     8    1
     8     8     9    1
     9     9     2    1
    10     6    10    1
    11     1    11    1
    12     1    12    1
    13     1    13    1
    14     3    14    1
    15     4    15    1
    16     4    16    1
    17     5    17    1
    18     5    18    1
    19     7    19    1
    20     8    20    1
    21     8    21    1
    22     9    22    1
    23     9    23    1
    24    10    24    1
    25    10    25    1
    26    10    26    1
